43

  C       -4.6218440       -3.5369710       -0.1751810
  H       -3.7814290       -3.9480390       -0.7453150
  H       -4.7696440       -4.1342450        0.7327990
  H       -5.5370300       -3.6104200       -0.7752030
  C       -4.4119440       -2.0852630        0.2212620
  O       -5.2671090       -1.4473650        0.8692340
  N       -3.2436710       -1.5093860       -0.1660110
  H       -2.5324880       -2.0017410       -0.6925650
  C       -2.9543880       -0.1285590        0.1568450
  H       -2.9404480        0.0201160        1.2484510
  H       -3.7453160        0.5299100       -0.2351340
  C       -1.6008670        0.2409180       -0.4440630
  O       -0.9183190       -0.6092090       -1.0651430
  N       -1.1851100        1.5150210       -0.2750490
  C       -1.9598390        2.5932640        0.3806590
  H       -2.1941210        2.3304630        1.4197420
  H       -2.9032270        2.7584930       -0.1616570
  C       -1.0257780        3.8220850        0.2745420
  H       -0.3619000        3.8758100        1.1454950
  H       -1.5929190        4.7568510        0.2014010
  C       -0.1796330        3.5311160       -0.9919280
  H        0.7648360        4.0820320       -0.9895330
  H       -0.7441680        3.7724830       -1.9028470
  C        0.0533990        2.0081890       -0.9223190
  H        0.1441480        1.5338340       -1.9075350
  C        1.2976920        1.6529020       -0.0734650
  O        1.8820520        2.5141020        0.6192750
  N        1.7106800        0.3671400       -0.1417730
  H        1.1860920       -0.3252150       -0.6751280
  C        2.8720900       -0.0825670        0.6138720
  H        3.5882950        0.7501100        0.6382200
  C        2.4918700       -0.4608100        2.0704370
  H        3.3771350       -0.7740950        2.6397140
  H        2.0489950        0.4147010        2.5602130
  H        1.7647820       -1.2827230        2.0625320
  C        3.4757920       -1.2924840       -0.1087550
  O        2.7767000       -2.0610730       -0.7936380
  N        4.8040240       -1.4954100        0.0868390
  H        5.3407390       -0.8206890        0.6100770
  C        5.4845970       -2.6573780       -0.4799370
  H        6.5226920       -2.6633780       -0.1353780
  H        4.9872410       -3.5805480       -0.1595760
  H        5.4627940       -2.6235580       -1.5764530
