43

  C       -4.4687630       -3.6054250       -0.1468750
  H       -3.6161600       -3.9921620       -0.7159140
  H       -4.6017380       -4.2068550        0.7604550
  H       -5.3802100       -3.7046130       -0.7491830
  C       -4.3004980       -2.1486460        0.2511880
  O       -5.1597140       -1.5444000        0.9255490
  N       -3.1649120       -1.5308280       -0.1665160
  H       -2.4527390       -1.9983130       -0.7139410
  C       -2.9106380       -0.1429500        0.1553170
  H       -2.8828420        0.0026290        1.2468250
  H       -3.7255680        0.4948750       -0.2219110
  C       -1.5786040        0.2655040       -0.4683540
  O       -0.8979680       -0.5570970       -1.1270910
  N       -1.1783920        1.5414110       -0.2763140
  C       -1.9539120        2.5914630        0.4225920
  H       -2.1577800        2.3021050        1.4610190
  H       -2.9131620        2.7530200       -0.0923210
  C       -1.0421580        3.8378320        0.3221260
  H       -0.3606850        3.8840460        1.1799000
  H       -1.6253500        4.7646720        0.2819250
  C       -0.2189850        3.5880980       -0.9678780
  H        0.7162470        4.1544770       -0.9739590
  H       -0.8072230        3.8385690       -1.8611620
  C        0.0400360        2.0686040       -0.9350110
  H        0.1209170        1.6168470       -1.9316200
  C        1.3053650        1.7151420       -0.1161000
  O        1.9088520        2.5782500        0.5580610
  N        1.7135110        0.4286840       -0.1869030
  H        1.1877740       -0.2674740       -0.7157060
  C        2.8893670       -0.0233420        0.5437500
  H        3.6555650        0.7615120        0.4686850
  C        2.5691780       -0.2685560        2.0428650
  H        3.4676890       -0.5778380        2.5931080
  H        2.1918860        0.6635730        2.4795060
  H        1.8075670       -1.0531730        2.1362070
  C        3.3825780       -1.3158760       -0.1179100
  O        2.6210670       -2.0384120       -0.7864500
  N        4.6812880       -1.6399650        0.1070710
  H        5.2740320       -1.0058510        0.6206210
  C        5.2501490       -2.8831260       -0.4083520
  H        6.2901410       -2.9602200       -0.0784260
  H        4.6830100       -3.7444090       -0.0355920
  H        5.2115640       -2.8995780       -1.5045930
