19

  C        4.3665970        0.5530880       -0.0000110
  H        4.4079180        1.6435260       -0.0001200
  H        4.7462940        0.0912690        0.9112670
  H        4.7463150        0.0910830       -0.9111860
  C        2.5987560       -0.1346880        0.0000390
  O        2.6727250       -1.3682730        0.0001610
  N        1.2700260        0.4570930       -0.0000320
  H        1.1622900        1.4637260       -0.0001380
  C       -0.0715070       -0.3926100        0.0000390
  H       -0.0243200       -1.0353300        0.8877430
  H       -0.0243030       -1.0355050       -0.8875370
  C       -1.6247670        0.3216200       -0.0000500
  O       -1.7004320        1.5510730       -0.0001850
  N       -2.7949610       -0.5262910        0.0000330
  H       -2.5860100       -1.5190590        0.0001470
  C       -4.4761960       -0.3190540       -0.0000080
  H       -4.8191100       -0.8027140        0.9149220
  H       -4.6510920        0.7576960       -0.0000840
  H       -4.8190880       -0.8028410       -0.9148790
