19

  C        4.7384100        0.5890530       -0.0000220
  H        4.8300800        1.6723340       -0.0000370
  H        4.9146460        0.0535540        0.9284610
  H        4.9146480        0.0535320       -0.9284930
  C        2.3860470       -0.1480650        0.0000450
  O        2.5396670       -1.3633430        0.0001990
  N        1.0917440        0.4210730       -0.0000420
  H        0.9727860        1.4255640       -0.0001720
  C       -0.1822440       -0.4395300        0.0000430
  H       -0.1372320       -1.0883690        0.8859360
  H       -0.1372180       -1.0885650       -0.8857040
  C       -1.6263270        0.2978760       -0.0000530
  O       -1.6911580        1.5328360       -0.0002040
  N       -2.7644970       -0.5362050        0.0000390
  H       -2.5702420       -1.5304350        0.0001650
  C       -4.3104140       -0.2286750       -0.0000160
  H       -4.7381040       -0.6650380        0.9062730
  H       -4.4229150        0.8586570       -0.0001200
  H       -4.7380770       -0.6652120       -0.9062340
